
#######################################################################
#
#                 Cambridge Crystallographic Data Centre
#                                CCDC 
#
#######################################################################
#
# If this CIF has been generated from an entry in the Cambridge 
# Structural Database, then it will include bibliographic, chemical, 
# crystal, experimental, refinement or atomic coordinate data resulting 
# from the CCDC's data processing and validation procedures.
#
#######################################################################

data_SIQMAK
_symmetry_cell_setting           monoclinic
_symmetry_space_group_name_H-M   'C 2/c'
_symmetry_Int_Tables_number      15
_space_group_name_Hall           '-C 2yc'
loop_
_symmetry_equiv_pos_site_id
_symmetry_equiv_pos_as_xyz
1 x,y,z
2 -x,y,1/2-z
3 1/2+x,1/2+y,z
4 1/2-x,1/2+y,1/2-z
5 -x,-y,-z
6 x,-y,1/2+z
7 1/2-x,1/2-y,-z
8 1/2+x,1/2-y,1/2+z
_cell_length_a                   25.893(17)
_cell_length_b                   12.764(9)
_cell_length_c                   18.520(12)
_cell_angle_alpha                90
_cell_angle_beta                 132.228(17)
_cell_angle_gamma                90
_cell_volume                     4532.33
loop_
_atom_site_label
_atom_site_type_symbol
_atom_site_fract_x
_atom_site_fract_y
_atom_site_fract_z
_atom_site_U_iso_or_equiv
_atom_site_thermal_displace_type
Fe01 Fe 0.5000 0.5000 0.5000 0.0406 Uani
Fe02 Fe 0.43876(8) 0.73082(11) 0.53340(11) 0.0427 Uani
Fe03 Fe 0.5000 0.78957(15) 0.7500 0.0406 Uani
O1 O 0.4035(4) 0.7907(5) 0.6005(5) 0.0475 Uani
O2 O 0.3133(6) 0.8780(8) 0.4718(7) 0.0916 Uani
O3 O 0.3863(4) 0.7708(6) 0.3769(6) 0.0602 Uani
O4 O 0.4748(4) 0.6623(5) 0.4633(6) 0.0499 Uani
O5 O 0.4085(4) 0.4661(6) 0.4704(7) 0.0674 Uani
O6 O 0.3659(4) 0.6120(6) 0.4777(6) 0.0551 Uani
O7 O 0.4845(4) 0.3299(5) 0.3194(5) 0.0483 Uani
O8 O 0.4458(4) 0.4596(6) 0.3513(5) 0.0587 Uani
O9 O 0.5349(4) 0.9054(5) 0.7131(5) 0.0518 Uani
O10 O 0.5067(4) 0.8543(6) 0.5755(6) 0.0535 Uani
C7 C 0.3134(7) 0.8403(13) 0.5968(12) 0.0923 Uani
H7A H 0.3249 0.9055 0.6305 0.1390 Uiso
H7B H 0.3325 0.7834 0.6423 0.1390 Uiso
H7C H 0.2636 0.8331 0.5475 0.1390 Uiso
C8 C 0.3438(6) 0.8387(9) 0.5491(9) 0.0516 Uani
C9 C 0.4257(10) 0.7051(11) 0.3018(11) 0.0897 Uani
H9A H 0.3968 0.6466 0.2617 0.1340 Uiso
H9B H 0.4719 0.6946 0.3267 0.1340 Uiso
H9C H 0.4065 0.7682 0.2637 0.1340 Uiso
C10 C 0.4285(7) 0.7144(8) 0.3853(8) 0.0477 Uani
C11 C 0.3044(8) 0.4544(11) 0.4414(13) 0.0894 Uani
H11A H 0.3028 0.4672 0.4909 0.1340 Uiso
H11B H 0.3118 0.3810 0.4397 0.1340 Uiso
H11C H 0.2611 0.4756 0.3791 0.1340 Uiso
C12 C 0.3645(6) 0.5173(9) 0.4643(8) 0.0476 Uani
C13 C 0.3959(7) 0.4405(10) 0.1897(8) 0.0676 Uani
H13A H 0.3511 0.4549 0.1686 0.1010 Uiso
H13B H 0.3916 0.3842 0.1516 0.1010 Uiso
H13C H 0.4127 0.5020 0.1813 0.1010 Uiso
C14 C 0.4451(5) 0.4105(8) 0.2930(7) 0.0433 Uani
C15 C 0.5860(7) 0.9967(9) 0.6621(10) 0.0609 Uani
H15A H 0.6282 0.9656 0.6839 0.0910 Uiso
H15B H 0.5971 1.0465 0.7097 0.0910 Uiso
H15C H 0.5623 1.0317 0.6011 0.0910 Uiso
C16 C 0.5392(6) 0.9119(8) 0.6490(8) 0.0450 Uani
Fe4 Fe 0.56124(8) 0.73082(11) 0.96660(11) 0.0427 Uani
O11 O 0.5965(4) 0.7907(5) 0.8995(5) 0.0475 Uani
O12 O 0.6867(6) 0.8780(8) 1.0282(7) 0.0916 Uani
O13 O 0.6137(4) 0.7708(6) 1.1231(6) 0.0602 Uani
O14 O 0.5252(4) 0.6623(5) 1.0367(6) 0.0499 Uani
O15 O 0.5915(4) 0.4661(6) 1.0296(7) 0.0674 Uani
O16 O 0.6341(4) 0.6120(6) 1.0223(6) 0.0551 Uani
O17 O 0.4651(4) 0.9054(5) 0.7869(5) 0.0518 Uani
O18 O 0.4933(4) 0.8543(6) 0.9245(6) 0.0535 Uani
C17 C 0.6866(7) 0.8403(13) 0.9032(12) 0.0923 Uani
H16 H 0.6751 0.9055 0.8695 0.1390 Uiso
H17 H 0.6675 0.7834 0.8577 0.1390 Uiso
H18 H 0.7364 0.8331 0.9525 0.1390 Uiso
C18 C 0.6562(6) 0.8387(9) 0.9509(9) 0.0516 Uani
C19 C 0.5743(10) 0.7051(11) 1.1982(11) 0.0897 Uani
H19 H 0.6032 0.6466 1.2383 0.1340 Uiso
H20 H 0.5281 0.6946 1.1733 0.1340 Uiso
H21 H 0.5935 0.7682 1.2363 0.1340 Uiso
C20 C 0.5715(7) 0.7144(8) 1.1147(8) 0.0477 Uani
C21 C 0.6956(8) 0.4544(11) 1.0586(13) 0.0894 Uani
H22 H 0.6972 0.4672 1.0091 0.1340 Uiso
H23 H 0.6882 0.3810 1.0603 0.1340 Uiso
H24 H 0.7389 0.4756 1.1209 0.1340 Uiso
C22 C 0.6355(6) 0.5173(9) 1.0357(8) 0.0476 Uani
C23 C 0.4140(7) 0.9967(9) 0.8379(10) 0.0609 Uani
H25 H 0.3718 0.9656 0.8161 0.0910 Uiso
H26 H 0.4029 1.0465 0.7903 0.0910 Uiso
H27 H 0.4377 1.0317 0.8989 0.0910 Uiso
C24 C 0.4608(6) 0.9119(8) 0.8510(8) 0.0450 Uani
O19 O 0.5155(4) 0.6701(5) 0.6806(5) 0.0483 Uani
O20 O 0.5542(4) 0.5404(6) 0.6487(5) 0.0587 Uani
C25 C 0.6041(7) 0.5595(10) 0.8103(8) 0.0676 Uani
H28 H 0.6489 0.5451 0.8314 0.1010 Uiso
H29 H 0.6084 0.6158 0.8484 0.1010 Uiso
H30 H 0.5873 0.4980 0.8187 0.1010 Uiso
C26 C 0.5549(5) 0.5895(8) 0.7070(7) 0.0433 Uani
Fe5 Fe 0.5000 0.5000 1.0000 0.0406 Uani
Fe6 Fe 0.56124(8) 0.26918(11) 0.46660(11) 0.0427 Uani
Fe7 Fe 0.5000 0.21043(15) 0.2500 0.0406 Uani
O21 O 0.5252(4) 0.3377(5) 0.5367(6) 0.0499 Uani
O22 O 0.5915(4) 0.5339(6) 0.5296(7) 0.0674 Uani
O23 O 0.4845(4) 0.6701(5) 0.8194(5) 0.0483 Uani
N1 N 0.1416(5) 0.6356(8) 0.0607(7) 0.0569 Uani
N2 N 0.1975(6) 0.7333(8) 0.1883(9) 0.0643 Uani
C1 C 0.2163(9) 0.8186(12) 0.2564(11) 0.0909 Uani
H1A H 0.1809 0.8716 0.2220 0.1370 Uiso
H1B H 0.2602 0.8486 0.2834 0.1370 Uiso
H1C H 0.2202 0.7909 0.3081 0.1370 Uiso
C2 C 0.2405(7) 0.6540(11) 0.2112(11) 0.0712 Uani
H2 H 0.2854 0.6432 0.2709 0.0850 Uiso
C3 C 0.1376(7) 0.7200(10) 0.0982(10) 0.0583 Uani
H3 H 0.0987 0.7630 0.0662 0.0700 Uiso
C4 C 0.2061(7) 0.5929(11) 0.1308(10) 0.0692 Uani
H4 H 0.2233 0.5330 0.1246 0.0830 Uiso
C5 C 0.0871(7) 0.5923(11) -0.0364(9) 0.0770 Uani
H5A H 0.0421 0.6172 -0.0620 0.0920 Uiso
H5B H 0.0874 0.5165 -0.0319 0.0920 Uiso
C6 C 0.0961(10) 0.6215(15) -0.1054(11) 0.1142 Uani
H6A H 0.0844 0.6940 -0.1229 0.1710 Uiso
H6B H 0.0660 0.5790 -0.1631 0.1710 Uiso
H6C H 0.1437 0.6102 -0.0748 0.1710 Uiso
loop_
_atom_site_aniso_label
_atom_site_aniso_U_11
_atom_site_aniso_U_22
_atom_site_aniso_U_33
_atom_site_aniso_U_23
_atom_site_aniso_U_13
_atom_site_aniso_U_12
Fe01 0.0457(13) 0.0496(12) 0.0468(14) -0.0046(10) 0.0394(13) -0.0008(10)
Fe02 0.0528(11) 0.0498(9) 0.0457(10) -0.0014(7) 0.0414(9) -0.0004(7)
Fe03 0.0524(14) 0.0471(12) 0.0428(13) 0.000 0.0404(13) 0.000
O1 0.050(5) 0.060(4) 0.045(4) 0.003(4) 0.037(4) 0.007(4)
O2 0.095(8) 0.095(7) 0.060(7) 0.027(6) 0.042(7) 0.018(6)
O3 0.063(6) 0.066(5) 0.063(6) -0.003(4) 0.047(5) -0.002(4)
O4 0.067(5) 0.046(4) 0.057(5) 0.003(4) 0.050(5) 0.008(4)
O5 0.059(5) 0.068(5) 0.110(8) -0.017(5) 0.071(6) -0.005(4)
O6 0.060(5) 0.057(5) 0.072(6) -0.020(4) 0.054(5) -0.018(4)
O7 0.060(5) 0.052(4) 0.050(5) 0.006(4) 0.044(5) 0.007(4)
O8 0.073(6) 0.070(5) 0.043(5) -0.002(4) 0.043(5) 0.018(4)
O9 0.070(5) 0.062(5) 0.047(5) 0.000(4) 0.049(5) -0.005(4)
O10 0.071(6) 0.057(4) 0.061(5) -0.002(4) 0.056(5) -0.007(4)
C7 0.061(10) 0.137(13) 0.099(12) -0.014(10) 0.062(10) 0.019(9)
C8 0.048(7) 0.051(6) 0.056(8) -0.009(6) 0.035(7) -0.001(6)
C9 0.160(16) 0.076(9) 0.079(10) -0.004(8) 0.099(12) -0.007(9)
C10 0.067(8) 0.051(6) 0.040(7) -0.002(5) 0.042(7) -0.007(6)
C11 0.090(11) 0.084(9) 0.144(15) -0.013(9) 0.099(12) -0.012(8)
C12 0.052(7) 0.058(7) 0.047(7) -0.005(5) 0.039(7) -0.008(5)
C13 0.083(10) 0.068(8) 0.042(7) -0.007(6) 0.038(8) 0.010(7)
C14 0.037(6) 0.060(7) 0.039(7) 0.003(5) 0.028(6) -0.004(5)
C15 0.069(9) 0.063(7) 0.076(9) 0.001(6) 0.059(8) -0.005(6)
C16 0.051(7) 0.050(6) 0.044(7) 0.000(5) 0.036(6) 0.001(5)
Fe4 0.0528 0.0498 0.0457 0.0014 0.0414 0.0004
O11 0.05 0.06 0.045 -0.003 0.037 -0.007
O12 0.095 0.095 0.06 -0.027 0.042 -0.018
O13 0.063 0.066 0.063 0.003 0.047 0.002
O14 0.067 0.046 0.057 -0.003 0.05 -0.008
O15 0.059 0.068 0.11 0.017 0.071 0.005
O16 0.06 0.057 0.072 0.02 0.054 0.018
O17 0.07 0.062 0.047 0 0.049 0.005
O18 0.071 0.057 0.061 0.002 0.056 0.007
C17 0.061 0.137 0.099 0.014 0.062 -0.019
C18 0.048 0.051 0.056 0.009 0.035 0.001
C19 0.16 0.076 0.079 0.004 0.099 0.007
C20 0.067 0.051 0.04 0.002 0.042 0.007
C21 0.09 0.084 0.144 0.013 0.099 0.012
C22 0.052 0.058 0.047 0.005 0.039 0.008
C23 0.069 0.063 0.076 -0.001 0.059 0.005
C24 0.051 0.05 0.044 0 0.036 -0.001
O19 0.06 0.052 0.05 0.006 0.044 0.007
O20 0.073 0.07 0.043 -0.002 0.043 0.018
C25 0.083 0.068 0.042 -0.007 0.038 0.01
C26 0.037 0.06 0.039 0.003 0.028 -0.004
Fe5 0.0457 0.0496 0.0468 0.0046 0.0394 0.0008
Fe6 0.0528 0.0498 0.0457 -0.0014 0.0414 -0.0004
Fe7 0.0524 0.0471 0.0428 0 0.0404 0
O21 0.067 0.046 0.057 0.003 0.05 0.008
O22 0.059 0.068 0.11 -0.017 0.071 -0.005
O23 0.06 0.052 0.05 -0.006 0.044 -0.007
N1 0.048(7) 0.071(7) 0.051(7) 0.005(5) 0.033(6) -0.002(5)
N2 0.068(8) 0.073(7) 0.069(8) 0.000(6) 0.053(8) -0.001(6)
C1 0.103(13) 0.105(11) 0.083(11) -0.020(9) 0.070(11) -0.004(9)
C2 0.048(8) 0.080(9) 0.071(10) 0.004(8) 0.034(8) 0.005(7)
C3 0.050(8) 0.071(8) 0.058(9) 0.005(7) 0.038(8) -0.007(6)
C4 0.059(9) 0.082(9) 0.065(9) -0.004(8) 0.041(9) 0.003(7)
C5 0.052(9) 0.089(10) 0.050(9) -0.010(7) 0.018(8) -0.018(7)
C6 0.124(16) 0.140(15) 0.061(10) 0.006(10) 0.055(12) -0.009(12)

#END
